&HEAD CHID='smoke_generation_test', TITLE='smoke_generation_test' /

&MESH XB= 0, 0.4, 0, 0.4, 0, 0.4, IJK= 40, 40, 40 /
&TIME T_END=10 /


&SPEC ID='MY SMOKE', MW=29., MASS_EXTINCTION_COEFFICIENT=8700. /
&SURF ID='SMOLDER', TMP_FRONT=1000., MASS_FLUX(1)=0.0001, SPEC_ID='MY SMOKE', COLOR='RED' /

&VENT XB=0.1,0.3,0.1,0.3,0.0,0.0, SURF_ID='SMOLDER' /
&PROP ID='Acme Smoke', QUANTITY='CHAMBER OBSCURATION', SPEC_ID='MY SMOKE' /
&DEVC XYZ=1.00,0.50,0.95, PROP_ID='Acme Smoke', ID='smoke_1' /
&SM3D QUANTITY='DENSITY', SPEC_ID='MY SMOKE' /
&SLCF PBY=0.2, QUANTITY="DENSITY" /
&TAIL /